data_image0
_chemical_formula_structural       ZrB2ZrB2ZrB2ZrB2ZrB2ZrB2ZrB2ZrB2ZrB2ZrB2ZrB2ZrB2ZrB2ZrB2ZrB2ZrB2ZrB2ZrB2ZrB2ZrB2ZrB2ZrB2ZrB2ZrB2ZrB2ZrB2ZrB2ZrB2ZrB2ZrB2ZrB2ZrB2ZrB2ZrB2ZrB2ZrB2ZrB2ZrB2ZrB2ZrB2ZrB2ZrB2ZrB2ZrB2ZrB2ZrB2ZrB2ZrB2
_chemical_formula_sum              "Zr48 B96"
_cell_length_a       12.72196148
_cell_length_b       12.721961479999997
_cell_length_c       28.86371
_cell_angle_alpha    90.0
_cell_angle_beta     90.0
_cell_angle_gamma    119.99999999999999

_space_group_name_H-M_alt    "P 1"
_space_group_IT_number       1

loop_
  _space_group_symop_operation_xyz
  'x, y, z'

loop_
  _atom_site_type_symbol
  _atom_site_label
  _atom_site_symmetry_multiplicity
  _atom_site_fract_x
  _atom_site_fract_y
  _atom_site_fract_z
  _atom_site_occupancy
  Zr  Zr1       1.0  0.0  0.0  0.3464558090418729  1.0000
  B   B1        1.0  0.1666666675  0.0833333325  0.4078734854251237  1.0000
  B   B2        1.0  0.0833333325  0.1666666675  0.4078734854251237  1.0000
  Zr  Zr2       1.0  0.0  0.0  0.46929116180837444  1.0000
  B   B3        1.0  0.1666666675  0.0833333325  0.5307088381916253  1.0000
  B   B4        1.0  0.0833333325  0.1666666675  0.5307088381916253  1.0000
  Zr  Zr3       1.0  0.0  0.0  0.5921265145748761  1.0000
  B   B5        1.0  0.1666666675  0.0833333325  0.6535441909581269  1.0000
  B   B6        1.0  0.0833333325  0.1666666675  0.6535441909581269  1.0000
  Zr  Zr4       1.0  0.0  0.25  0.3464558090418729  1.0000
  B   B7        1.0  0.1666666675  0.3333333325  0.4078734854251237  1.0000
  B   B8        1.0  0.0833333325  0.41666666750000003  0.4078734854251237  1.0000
  Zr  Zr5       1.0  0.0  0.25  0.46929116180837444  1.0000
  B   B9        1.0  0.1666666675  0.3333333325  0.5307088381916253  1.0000
  B   B10       1.0  0.0833333325  0.41666666750000003  0.5307088381916253  1.0000
  Zr  Zr6       1.0  0.0  0.25  0.5921265145748761  1.0000
  B   B11       1.0  0.1666666675  0.3333333325  0.6535441909581269  1.0000
  B   B12       1.0  0.0833333325  0.41666666750000003  0.6535441909581269  1.0000
  Zr  Zr7       1.0  0.0  0.49999999999999994  0.3464558090418729  1.0000
  B   B13       1.0  0.1666666675  0.5833333325  0.4078734854251237  1.0000
  B   B14       1.0  0.08333333250000001  0.6666666675  0.4078734854251237  1.0000
  Zr  Zr8       1.0  0.0  0.49999999999999994  0.46929116180837444  1.0000
  B   B15       1.0  0.1666666675  0.5833333325  0.5307088381916253  1.0000
  B   B16       1.0  0.08333333250000001  0.6666666675  0.5307088381916253  1.0000
  Zr  Zr9       1.0  0.0  0.49999999999999994  0.5921265145748761  1.0000
  B   B17       1.0  0.1666666675  0.5833333325  0.6535441909581269  1.0000
  B   B18       1.0  0.08333333250000001  0.6666666675  0.6535441909581269  1.0000
  Zr  Zr10      1.0  0.0  0.75  0.3464558090418729  1.0000
  B   B19       1.0  0.1666666675  0.8333333325  0.4078734854251237  1.0000
  B   B20       1.0  0.08333333249999994  0.9166666675  0.4078734854251237  1.0000
  Zr  Zr11      1.0  0.0  0.75  0.46929116180837444  1.0000
  B   B21       1.0  0.1666666675  0.8333333325  0.5307088381916253  1.0000
  B   B22       1.0  0.08333333249999994  0.9166666675  0.5307088381916253  1.0000
  Zr  Zr12      1.0  0.0  0.75  0.5921265145748761  1.0000
  B   B23       1.0  0.1666666675  0.8333333325  0.6535441909581269  1.0000
  B   B24       1.0  0.08333333249999994  0.9166666675  0.6535441909581269  1.0000
  Zr  Zr13      1.0  0.25  0.0  0.3464558090418729  1.0000
  B   B25       1.0  0.41666666750000003  0.0833333325  0.4078734854251237  1.0000
  B   B26       1.0  0.33333333249999997  0.1666666675  0.4078734854251237  1.0000
  Zr  Zr14      1.0  0.25  0.0  0.46929116180837444  1.0000
  B   B27       1.0  0.41666666750000003  0.0833333325  0.5307088381916253  1.0000
  B   B28       1.0  0.33333333249999997  0.1666666675  0.5307088381916253  1.0000
  Zr  Zr15      1.0  0.25  0.0  0.5921265145748761  1.0000
  B   B29       1.0  0.41666666750000003  0.0833333325  0.6535441909581269  1.0000
  B   B30       1.0  0.33333333249999997  0.1666666675  0.6535441909581269  1.0000
  Zr  Zr16      1.0  0.25  0.25  0.3464558090418729  1.0000
  B   B31       1.0  0.4166666675  0.3333333325  0.4078734854251237  1.0000
  B   B32       1.0  0.33333333249999997  0.41666666750000003  0.4078734854251237  1.0000
  Zr  Zr17      1.0  0.25  0.25  0.46929116180837444  1.0000
  B   B33       1.0  0.4166666675  0.3333333325  0.5307088381916253  1.0000
  B   B34       1.0  0.33333333249999997  0.41666666750000003  0.5307088381916253  1.0000
  Zr  Zr18      1.0  0.25  0.25  0.5921265145748761  1.0000
  B   B35       1.0  0.4166666675  0.3333333325  0.6535441909581269  1.0000
  B   B36       1.0  0.33333333249999997  0.41666666750000003  0.6535441909581269  1.0000
  Zr  Zr19      1.0  0.25  0.49999999999999994  0.3464558090418729  1.0000
  B   B37       1.0  0.4166666675  0.5833333325  0.4078734854251237  1.0000
  B   B38       1.0  0.3333333325  0.6666666675  0.4078734854251237  1.0000
  Zr  Zr20      1.0  0.25  0.49999999999999994  0.46929116180837444  1.0000
  B   B39       1.0  0.4166666675  0.5833333325  0.5307088381916253  1.0000
  B   B40       1.0  0.3333333325  0.6666666675  0.5307088381916253  1.0000
  Zr  Zr21      1.0  0.25  0.49999999999999994  0.5921265145748761  1.0000
  B   B41       1.0  0.4166666675  0.5833333325  0.6535441909581269  1.0000
  B   B42       1.0  0.3333333325  0.6666666675  0.6535441909581269  1.0000
  Zr  Zr22      1.0  0.25  0.75  0.3464558090418729  1.0000
  B   B43       1.0  0.4166666675  0.8333333325  0.4078734854251237  1.0000
  B   B44       1.0  0.33333333249999997  0.9166666675  0.4078734854251237  1.0000
  Zr  Zr23      1.0  0.25  0.75  0.46929116180837444  1.0000
  B   B45       1.0  0.4166666675  0.8333333325  0.5307088381916253  1.0000
  B   B46       1.0  0.33333333249999997  0.9166666675  0.5307088381916253  1.0000
  Zr  Zr24      1.0  0.25  0.75  0.5921265145748761  1.0000
  B   B47       1.0  0.4166666675  0.8333333325  0.6535441909581269  1.0000
  B   B48       1.0  0.33333333249999997  0.9166666675  0.6535441909581269  1.0000
  Zr  Zr25      1.0  0.49999999999999994  0.0  0.3464558090418729  1.0000
  B   B49       1.0  0.6666666674999999  0.0833333325  0.4078734854251237  1.0000
  B   B50       1.0  0.5833333325  0.1666666675  0.4078734854251237  1.0000
  Zr  Zr26      1.0  0.49999999999999994  0.0  0.46929116180837444  1.0000
  B   B51       1.0  0.6666666674999999  0.0833333325  0.5307088381916253  1.0000
  B   B52       1.0  0.5833333325  0.1666666675  0.5307088381916253  1.0000
  Zr  Zr27      1.0  0.49999999999999994  0.0  0.5921265145748761  1.0000
  B   B53       1.0  0.6666666674999999  0.0833333325  0.6535441909581269  1.0000
  B   B54       1.0  0.5833333325  0.1666666675  0.6535441909581269  1.0000
  Zr  Zr28      1.0  0.49999999999999994  0.25  0.3464558090418729  1.0000
  B   B55       1.0  0.6666666675  0.3333333325  0.4078734854251237  1.0000
  B   B56       1.0  0.5833333325  0.41666666750000003  0.4078734854251237  1.0000
  Zr  Zr29      1.0  0.49999999999999994  0.25  0.46929116180837444  1.0000
  B   B57       1.0  0.6666666675  0.3333333325  0.5307088381916253  1.0000
  B   B58       1.0  0.5833333325  0.41666666750000003  0.5307088381916253  1.0000
  Zr  Zr30      1.0  0.49999999999999994  0.25  0.5921265145748761  1.0000
  B   B59       1.0  0.6666666675  0.3333333325  0.6535441909581269  1.0000
  B   B60       1.0  0.5833333325  0.41666666750000003  0.6535441909581269  1.0000
  Zr  Zr31      1.0  0.49999999999999994  0.49999999999999994  0.3464558090418729  1.0000
  B   B61       1.0  0.6666666675  0.5833333325  0.4078734854251237  1.0000
  B   B62       1.0  0.5833333325  0.6666666675  0.4078734854251237  1.0000
  Zr  Zr32      1.0  0.49999999999999994  0.49999999999999994  0.46929116180837444  1.0000
  B   B63       1.0  0.6666666675  0.5833333325  0.5307088381916253  1.0000
  B   B64       1.0  0.5833333325  0.6666666675  0.5307088381916253  1.0000
  Zr  Zr33      1.0  0.49999999999999994  0.49999999999999994  0.5921265145748761  1.0000
  B   B65       1.0  0.6666666675  0.5833333325  0.6535441909581269  1.0000
  B   B66       1.0  0.5833333325  0.6666666675  0.6535441909581269  1.0000
  Zr  Zr34      1.0  0.49999999999999994  0.75  0.3464558090418729  1.0000
  B   B67       1.0  0.6666666674999999  0.8333333325  0.4078734854251237  1.0000
  B   B68       1.0  0.5833333325  0.9166666675  0.4078734854251237  1.0000
  Zr  Zr35      1.0  0.49999999999999994  0.75  0.46929116180837444  1.0000
  B   B69       1.0  0.6666666674999999  0.8333333325  0.5307088381916253  1.0000
  B   B70       1.0  0.5833333325  0.9166666675  0.5307088381916253  1.0000
  Zr  Zr36      1.0  0.49999999999999994  0.75  0.5921265145748761  1.0000
  B   B71       1.0  0.6666666674999999  0.8333333325  0.6535441909581269  1.0000
  B   B72       1.0  0.5833333325  0.9166666675  0.6535441909581269  1.0000
  Zr  Zr37      1.0  0.75  0.0  0.3464558090418729  1.0000
  B   B73       1.0  0.9166666675  0.0833333325  0.4078734854251237  1.0000
  B   B74       1.0  0.8333333325000001  0.1666666675  0.4078734854251237  1.0000
  Zr  Zr38      1.0  0.75  0.0  0.46929116180837444  1.0000
  B   B75       1.0  0.9166666675  0.0833333325  0.5307088381916253  1.0000
  B   B76       1.0  0.8333333325000001  0.1666666675  0.5307088381916253  1.0000
  Zr  Zr39      1.0  0.75  0.0  0.5921265145748761  1.0000
  B   B77       1.0  0.9166666675  0.0833333325  0.6535441909581269  1.0000
  B   B78       1.0  0.8333333325000001  0.1666666675  0.6535441909581269  1.0000
  Zr  Zr40      1.0  0.75  0.25  0.3464558090418729  1.0000
  B   B79       1.0  0.9166666675000001  0.3333333325  0.4078734854251237  1.0000
  B   B80       1.0  0.8333333325000001  0.41666666750000003  0.4078734854251237  1.0000
  Zr  Zr41      1.0  0.75  0.25  0.46929116180837444  1.0000
  B   B81       1.0  0.9166666675000001  0.3333333325  0.5307088381916253  1.0000
  B   B82       1.0  0.8333333325000001  0.41666666750000003  0.5307088381916253  1.0000
  Zr  Zr42      1.0  0.75  0.25  0.5921265145748761  1.0000
  B   B83       1.0  0.9166666675000001  0.3333333325  0.6535441909581269  1.0000
  B   B84       1.0  0.8333333325000001  0.41666666750000003  0.6535441909581269  1.0000
  Zr  Zr43      1.0  0.75  0.49999999999999994  0.3464558090418729  1.0000
  B   B85       1.0  0.9166666675  0.5833333325  0.4078734854251237  1.0000
  B   B86       1.0  0.8333333325000001  0.6666666675  0.4078734854251237  1.0000
  Zr  Zr44      1.0  0.75  0.49999999999999994  0.46929116180837444  1.0000
  B   B87       1.0  0.9166666675  0.5833333325  0.5307088381916253  1.0000
  B   B88       1.0  0.8333333325000001  0.6666666675  0.5307088381916253  1.0000
  Zr  Zr45      1.0  0.75  0.49999999999999994  0.5921265145748761  1.0000
  B   B89       1.0  0.9166666675  0.5833333325  0.6535441909581269  1.0000
  B   B90       1.0  0.8333333325000001  0.6666666675  0.6535441909581269  1.0000
  Zr  Zr46      1.0  0.75  0.75  0.3464558090418729  1.0000
  B   B91       1.0  0.9166666675  0.8333333325  0.4078734854251237  1.0000
  B   B92       1.0  0.8333333325  0.9166666675  0.4078734854251237  1.0000
  Zr  Zr47      1.0  0.75  0.75  0.46929116180837444  1.0000
  B   B93       1.0  0.9166666675  0.8333333325  0.5307088381916253  1.0000
  B   B94       1.0  0.8333333325  0.9166666675  0.5307088381916253  1.0000
  Zr  Zr48      1.0  0.75  0.75  0.5921265145748761  1.0000
  B   B95       1.0  0.9166666675  0.8333333325  0.6535441909581269  1.0000
  B   B96       1.0  0.8333333325  0.9166666675  0.6535441909581269  1.0000
